[General]
network = Simulation01
record-eventlog = true

sim-time-limit = 500s
cpu-time-limit = 500s
total-stack = 7MiB  # increase if necessary
cmdenv-express-mode = true
cmdenv-event-banners = true
cmdenv-performance-display = false

[Config Run1]
*.enter1.datatype = "product"
*.enter1.initialTime = 0s
*.enter1.intervalTime = exponential(1.0s)
*.await.productionTime = uniform(0.2s, 0.5s)
*.goon.productionTime = normal(0.5s, 0.1s)
*.release1.intervalTime = 0s
*.enter2.datatype = "accident"
*.enter2.initialTime = 20s
*.enter2.intervalTime = 99999s
*.preempt.productionTime = erlang_k(3, 2.25s)
*.release2.intervalTime = normal(20.0s, 2.0s)